tests/data/power_flow/handling-of-links/merge-nodes-by-links-1-line/input.json
{
    "version": "1.0",
    "type": "input",
    "is_batch": false,
    "attributes": {},
    "data": {
        "node": [
            {
                "id": 1,
                "u_rated": 10500
            },
            {
                "id": 2,
                "u_rated": 10500
            },
            {
                "id": 3,
                "u_rated": 10500
            },
            {
                "id": 4,
                "u_rated": 10500
            },
            {
                "id": 5,
                "u_rated": 10500
            }
        ],
        "line": [
            {
                "id": 10,
                "from_node": 5,
                "to_node": 3,
                "from_status": 1,
                "to_status": 1,
                "r1": 0.25,
                "x1": 0.2,
                "c1": 1e-05,
                "tan1": 0,
                "i_n": 1000
            }
        ],
        "link": [
            {
                "id": 7,
                "from_node": 1,
                "to_node": 2,
                "from_status": 1,
                "to_status": 1
            },
            {
                "id": 8,
                "from_node": 2,
                "to_node": 3,
                "from_status": 1,
                "to_status": 1
            },
            {
                "id": 9,
                "from_node": 4,
                "to_node": 2,
                "from_status": 1,
                "to_status": 1
            }
        ],
        "sym_load": [
            {
                "id": 12,
                "node": 5,
                "status": 1,
                "type": 0,
                "p_specified": 20000000,
                "q_specified": 5000000
            },
            {
                "id": 13,
                "node": 4,
                "status": 1,
                "type": 0,
                "p_specified": 10000000,
                "q_specified": 2000000
            }
        ],
        "source": [
            {
                "id": 14,
                "node": 1,
                "status": 1,
                "u_ref": 1
            }
        ]
    }
}
